*Heading
*Preprint, echo=NO, model=NO, history=NO, contact=NO
*Node
1,	   5.4836307525635E+01,	   2.1773051452637E+02,	  -1.3693290710449E+02
2,	   5.4769332885742E+01,	   2.1629626464844E+02,	  -1.3888281250000E+02
3,	   5.4001430511475E+01,	   2.1836006164551E+02,	  -1.3943313598633E+02
4,	   5.3057926177979E+01,	   2.1551367187500E+02,	  -1.3628816223145E+02
5,	   5.2617351531982E+01,	   2.1784555053711E+02,	  -1.3636186218262E+02
6,	   3.0243356704712E+01,	   1.9251069641113E+02,	  -1.4427383422852E+02
7,	   2.9763811111450E+01,	   1.8997460937500E+02,	  -1.4379104614258E+02
8,	   2.7934598922729E+01,	   1.9180201721191E+02,	  -1.4629620361328E+02
9,	   2.9509780883789E+01,	   1.9412138366699E+02,	  -1.4648016357422E+02
10,	   2.3367515563965E+01,	   1.7977825927734E+02,	  -1.3152207946777E+02
11,	   2.1177824020386E+01,	   1.8214018249512E+02,	  -1.3056356811523E+02
12,	   2.0311195373535E+01,	   1.8009188842773E+02,	  -1.3133758544922E+02
13,	   2.1195487976074E+01,	   1.7785978698730E+02,	  -1.3197633361816E+02
14,	   1.3904366493225E+01,	   2.0657130432129E+02,	  -1.4045368957520E+02
15,	   1.5149142265320E+01,	   2.0509675598145E+02,	  -1.3940602111816E+02
16,	   1.6598905563354E+01,	   2.0547387695313E+02,	  -1.4167846679688E+02
17,	   1.5323205947876E+01,	   2.0701580810547E+02,	  -1.4319332885742E+02
18,	   7.1328740119934E+00,	   1.7548522949219E+02,	  -1.3240617370605E+02
19,	   9.6125183105469E+00,	   1.7480242919922E+02,	  -1.3256286621094E+02
20,	   8.6722517013550E+00,	   1.7747303771973E+02,	  -1.3204907226563E+02
** ... 4806 like lines cut
*Element, type=C3D4
1, 	2398,	3019,	2903,	3020,
2, 	2259,	2903,	2663,	3020,
3, 	2903,	3020,	3019,	3829,
4, 	2246,	2468,	2784,	3332,
5, 	2757,	3019,	2663,	3829,
6, 	3160,	3389,	3001,	4752,
7, 	2599,	2278,	2686,	3555,
8, 	2575,	3705,	3198,	4431,
9, 	2760,	3676,	2761,	4692,
10, 	3055,	3065,	2664,	4032,
11, 	3790,	3911,	2469,	4095,
12, 	3295,	3835,	3077,	4211,
13, 	2622,	3058,	3212,	3333,
14, 	2238,	2562,	2484,	4017,
15, 	 354,	2803,	2664,	3065,
16, 	2384,	2335,	4206,	4325,
17, 	2313,	3031,	2621,	3357,
18, 	2621,	3031,	2620,	3357,
19, 	2911,	3043,	1915,	3350,
20, 	2218,	3773,	2917,	4779,
** ... 22751 like lines cut
*Elset, elset=Set_1
13727,15603,7012,11741,330,8314,13737,12324,11409,11963,13450,19064,21927,4635,16187,12497,
5718,10383,6773,11390,5761,13846,16563,3312,22280,13141,17620,16572,16901,20623,17126,14021,
5831,60,5239,2166,8277,12020,10190,16624,13275,3502,5511,13425,588,7546,22560,12815,
15210,11149,16071,7937,11816,4309,1180,11010,13773,15376,2848,3083,1423,16424,17721,14631,
17960,2128,21627,7796,12768,2380,11629,16391,4322,15426,601,8168,20189,17124,15514,5789,
14586,9963,14354,16211,20082,16626,19076,11354,20022,21067,22281,4000,1969,4780,2892,15316,
12758,2760,17717,14976,4975,13380,9133,15630,13345,18771,1081,20963,2970,21435,16561,8197,
9892,10391,16017,10177,21926,15732,14950,1266,13906,149,6652,5222,9639,17797,6584,22585,
16658,18974,3531,22439,5317,17856,19268,18332,12865,3856,19270,14872,20735,8145,16926
*Solid Section, elset=Set_1, material=Mat_1
*Elset, elset=Set_2
14603,6762,10687,10770,14381,17998,10351,8860,21508,19636,18099,13692,7434,15230,14718,12972,
19223,12892,19708,19949,5461,8525,7803,15715,5571,11614,2631,6170,9326,14527,5194,1794,
17710,16096,11486,20024,18880,17077,3767,5552,20056,22584,14042,7399,4225,11562,17766,20782,
17887,7106,4559,4051,19551,17466,8512,4839,14295,17792,9342,16215,11044,17854,19341,6923,
16571,2659,4320,14437,4522,20265,18979,834,19209,21054,20193,15090,6154,10976,18269,9489,
17441,11448,22438,13486,16776,21063,1234,21764,1358,16697,4936,19709,15656,16298,10622,13980,
6855,13233,13429,19667,3727,9773,20475,10495,5604,11163,1237,238,16222,19024,4529,6008,
18364,9917,17545,21416,8664,12342,11111,19749,18555,19313,12117,7742,9944,10674,18481,21258,
10062,10490,14927,14589,14988,12184,16552,17543,13520,14105,1043,15960,14817,10497,18639,13008,
19286,2516,22436,17720,12821,4372,18985,17729,14240,4798,16375,13406,19338,15886,15424,7954,
4065,18229,20501,13114,10468,4659,9496,5179,22327,21763,14260,11846,19177,6016,67,11787,
15837,19200,4262,20472,15539,11653,2714,12086,9293,16848,15533,11520,15154,20751,18440,19134,
19663,13885,21022,21682,16701,2346,16720,1971,19174,15924,21125,15364,15812,21365,12235,22377,
17313,21121,21544,18291,10780,17320,13608,16146,21556,21091,2104,1281,21641,19287,636,5255,
12068,1028,13770,16344,16288,17835,12003,21374,13294,19754,20188,11750,9627,20038,16073,10232,
18334,17576,18413,12682,11021,15617,17963,11980,19190,14523,19029,4496,22408,6867,21903,15046,
19893,12610,19735,6114,12913,17744,20228,22533,13629,14889,5075,16451,17562,19186,17413,18579,
18326,16140,12242,13956,17844,11120,611,10417,10461,12295,11828,17554,16782,14804,22589,16595,
11634,19336,18213,16408,19250,18273,13488,13974,12338,612,21316,19865,17092,17588,4644,19173,
19538
*Solid Section, elset=Set_2, material=Mat_2
*Elset, elset=Set_3
18774,5962,14235,9805,12341,5119,18779,20698,21001,9991,18624,22491,18350,17142,22365,17070,
10245,719,4563,16065,16168,18577,18656,18069,18057,20871,17116,18158,324,15695,9576,16968,
5449,13211,18461,15753,15160,16594,16436,15496,4673,20007,14196,20790,12447,19383,13137,18008,
21225,19678,5021,11946,5852,15942,13997,22712,4893,13037,13461,19345,22479,8340,10849,20442,
19098,12148,20998,3131,16967,18989,18547,17737,13941,19437,5875,17719,7894,11400,17936,18242,
6334,9418,15100,16646,12989,13485,12709,22741,2545,15547,22561,18874,2778,18302,10737,16816,
3756,8375,16694,12365,10328,15048,16292,21235,21393,20566,17445,13782,13753,765,14530,2785,
22374,13502,14397,15989,12418,18698,19049,17690,19001,12054,17003,16876,16578,15058,16713,4608,
19169,22592,8638,13083,17627,13351,12240,20128,13003,8654,13323,11914,18127,20570,2590,14133,
10570,18562,7413,19904,19325,14007,15378,7067,20384,22242,11217,13236,4823,16468,9761,20281,
14006,10648,13263,9659,7767,7724,19400,13184,11382,8444,10857,16885,18699,16677,11295,14670,
8681,10536,13721,21327,8469,15677,19031,21336,16318,15762,9898,11269,19855,18575,17458,15949,
16932,3306,19836,13154,2833,1567,15810,13617,15270,18907,10751,3735,19472,13198,11197,22490,
7599,13532,9216,6041,20992,18739,16673,19772,19166,1184,22593,17726,11528,19541,11493,19842,
15269,16893,9434,12987,246,16869,15052,18664,21017,19858,13120,14681,15184,18066,20924,12156,
3697,12379,15512,5953,22748,19227,16777,10877,22269,8107,16546,22362,209,21387,16657,18485,
17388,18948,14055,5677,22375,905,16879,19087,17713,19867,19725,14228,18366,19841,15323,2557,
8886,17020,9835,20184,13686,17493,12436,12867,20837,22730,15031,13572,20810,16284,16433,16990,
20027,9957,14968,19467,19101,21275,19460,14705,15076,18336,21637,8556,17208,12065,5867,21021,
21179,3936,19779,17156,21708,1039,18247,12835,15022,11904,10297,17067,21140,9373,15066,17516,
** ... 14 like lines cut
*Solid Section, elset=Set_3, material=Mat_3
*Elset, elset=Set_4
20482,19529,16184,19212,18793,16504,12849,20977,15604,7780,19960,9634,22393,15229,16107,6654,
19115,14140,16728,18725,17592,13348,19473,16295,16753,8784,15009,19547,21363,5607,2583,18243,
16982,19409,20747,11117,12191,16739,16497,897,21407,19651,20900,17128,18448,19849,16431,4231,
18643,16166,1073,16505,20868,17799,21272,13625,17715,13601,15764,20060,19191,16264,14986,20599,
13328,22098,20441,21687,21730,19618,20345,11967,2608,17026,8910,19844,20155,1010,18094,12121,
21728,14931,22364,13043,11266,7901,18978,16758,18284,20081,17099,4116,13354,19092,11792,16586,
6823,15132,12268,22762,18174,16352,8329,554,14378,20922,21313,6457,21657,14671,19195,15494,
5120,20068,22587,21099,19056,11064,14472,20766,19111,10848,18603,14830,9255,13538,11002,10037,
7326,17412,19999,17311,20876,19234,14707,19378,18300,14614,19301,19178,14323,16385,14407,5066,
8568,16195,17895,6746,9083,50,17621,7335,17649,12043,20077,22654,7668,10016,10925,10375,
14487,10678,15068,10221,18344,19470,9452,12444,22268,6635,4342,16672,19127,16611,15823,20815,
3715,21653,2101,22704,13725,18403,17608,15653,20712,21457,17544,15616,11683,18475,8296,19695,
20914,3071,17832,19985,18528,21030,10802,18429,12519,9864,7315,15370,19782,17777,22599,5413,
18611,7394,21614,10126,380,20102,18382,19205,19803,14900,17424,15223,12982,18668,20321,19903,
16964,17861,19380,8706,17107,19685,20975,16856,20122,9140,21489,8782,16132,19811,20794,16794,
17553,11661,17660,22410,17705,10018,921,20411,16666,17236,20491,6550,21596,5377,18323,13647,
10358,18616,18657,5494,19557,21497,36,11484,10404,16434,15803,4989,12741,15495,20574,12484,
19550,21440,12514,13694,14781,17583,16050,18981,18052,17277,12688,20156,21592,21656,17361,16070,
4059,15676,17164,19786,4846,17468,17090,19449,14209,20484,19312,3687,20846,13931,18167,14959,
19770,18186,16554,6630,12920,19817,12667,13827,13784,18620,17704,9486,17902,15669,12269,21124,
** ... 29 like lines cut
*Solid Section, elset=Set_4, material=Mat_4
*Elset, elset=Set_5
15671,17163,17732,18594,20629,18966,19305,18537,7433,18939,16632,18378,12308,21585,21338,1230,
19374,16938,1302,16717,14396,16055,7282,16214,8113,19821,13644,16425,21161,21716,20260,12205,
20151,16583,19880,14994,18736,21563,19830,18891,18040,10452,20239,18764,15509,21070,19898,5405,
22411,15748,12160,19291,16547,7884,14893,17485,12124,20834,3057,19360,18416,11196,13340,19279,
17962,19969,18589,12897,8591,16732,20412,13284,22254,18317,5780,13897,20000,18495,12702,21377,
18027,19710,18340,18975,20123,15536,18204,14452,15225,17859,18722,20798,13313,14018,22548,21180,
15451,19661,11408,22367,12613,21444,22451,18758,16320,20493,18454,4278,15541,16337,11289,7230,
15884,15056,16799,20277,10199,20516,10486,14677,22328,10626,21410,15839,16139,14764,15652,18905,
1017,19629,20486,13673,18101,19292,19149,21189,3782,17728,15480,14674,18046,19738,19826,6497,
15911,8975,20447,10144,20677,16857,239,11142,2325,18527,18904,15888,2285,14482,18671,17806,
20568,19617,11094,22214,10647,19326,21654,17132,20884,21436,10428,22540,14543,11990,21720,21202,
19897,19453,7988,12112,21392,13638,20067,15004,14903,19515,602,21259,20242,20350,22509,19260,
16924,16446,20763,14406,15241,3176,15000,18843,17671,6819,10722,13344,10627,21065,20558,4459,
14829,19419,18155,12801,17224,15969,19533,20211,15313,18445,18207,21328,18432,17084,5951,22750,
20586,21550,19537,19698,3276,20087,18433,21620,16493,12755,18224,7463,18086,20354,19582,20529,
5360,13170,7274,21586,19465,20637,14841,7302,6144,7592,18409,18903,8297,20879,14982,12162,
14050,21628,18998,16159,20487,18311,12554,19607,7020,8998,12429,11517,21532,11749,14714,22425,
20780,14822,8310,19054,17997,6658,21606,14244,10897,16712,21688,5065,18524,12359,7389,5991,
18312,5308,9431,18150,12426,17270,15114,7092,18536,14593,21101,14496,19681,15963,19950,16006,
12713,13645,20029,10633,4164,19733,14290,5836,17611,20784,9740,18560,22562,13860,9026,20804,
** ... 46 like lines cut
*Solid Section, elset=Set_5, material=Mat_5
*Elset, elset=Set_6
19023,15784,20980,19946,13194,13838,21251,13161,9775,17833,14510,15756,18175,17511,6935,11370,
9130,20700,3297,21190,22681,16788,18498,20897,13628,20720,18953,19265,14469,19995,19050,9249,
20710,20877,7844,20972,15649,18412,12441,14331,4366,16501,15278,20808,13050,18256,19327,20477,
1744,1760,21217,6940,11416,11883,16394,20043,11072,19514,15359,18940,12373,9663,21010,11970,
22177,17432,11017,16116,20609,21115,16874,20308,15367,18483,17118,21629,19038,16351,19542,18909,
19688,10075,22586,20180,21443,17045,18885,20872,19296,15883,19281,17881,13899,21280,21253,18726,
19118,14245,21228,7258,6272,16384,10595,14690,17669,16156,16185,19362,19568,14531,2069,18606,
18002,16638,18507,4447,13640,15410,20249,3060,15332,9128,19895,3304,20010,20130,18453,22732,
20691,9800,10783,9954,4574,19832,8586,19943,16034,8571,19187,11148,1353,19553,19996,3011,
19501,13524,15369,12585,10327,20633,22117,19639,18090,10180,22180,5289,15180,18272,9714,13750,
5517,20076,21368,15428,7426,9017,13303,20524,22366,6562,16792,5824,19619,7173,11132,13946,
12824,12328,16045,20823,8364,18231,14445,13190,6029,20009,14110,14649,7609,21334,18781,19078,
14995,20419,13200,11414,21298,22368,5444,10524,18780,13126,10584,14685,19670,4655,21162,19314,
925,19488,20414,16359,20731,9587,10087,15899,8627,9308,21677,15730,20416,19520,17693,13661,
18488,10623,18586,17579,8206,17619,17195,20465,14843,13852,20089,17431,19181,20083,18871,14664,
15530,18893,22677,16520,17366,9798,20421,16167,20407,1086,19457,9057,2766,20678,2692,22625,
3944,19696,12515,2842,6379,12476,11995,7769,22496,20464,10039,16875,22630,13169,20052,19543,
17117,15276,22444,18309,16698,18772,15915,21852,18976,18763,21659,20489,18414,12021,11485,22257,
10217,13492,16407,9623,19829,15965,12006,16498,20551,19546,17282,20468,17882,22579,10409,10844,
17602,6267,11167,18554,14301,16513,20309,6129,19070,17647,12834,12286,22400,12222,9250,17929,
** ... 72 like lines cut
*Solid Section, elset=Set_6, material=Mat_6
*Elset, elset=Set_7
21126,15519,21621,15152,21562,17739,17435,14267,11699,16294,18120,20600,13577,12639,1819,21460,
7011,14970,14676,17428,19759,5541,20684,10779,19239,16192,13971,17867,4222,18241,16053,22764,
7583,20488,21149,18980,12056,21640,8144,21172,19748,6308,16012,11170,20726,21293,19397,6168,
7918,19827,14904,19975,16831,15490,6239,5039,19006,4208,18032,16960,19513,13868,2886,12061,
18947,7445,19766,18441,16461,20368,20842,15317,21227,20854,15667,18404,19422,21683,16565,18828,
18849,20686,17491,20172,18558,18720,20399,15041,17503,22631,21265,21718,19794,18103,9044,14809,
19507,950,16566,2142,17622,19689,1912,20153,13375,11438,6511,13607,13287,13604,15973,12403,
16134,12628,16189,1166,14107,14756,19554,15094,12805,11185,8780,19666,15130,20113,1581,325,
11893,14213,20418,19421,20832,10843,11065,19021,18685,14941,10224,21709,18201,14766,14476,20258,
20306,12536,22498,17365,20875,19580,13914,11888,20860,10301,11575,17170,9482,5769,15343,17252,
21347,17350,16592,19057,14581,10757,11443,13084,13763,7096,4263,13691,18950,8479,15755,2726,
14911,20859,15293,12862,18372,8394,17909,19446,20182,16579,19806,8228,22183,17460,8535,17625,
17318,17885,9690,18812,13385,8350,1291,14963,16589,20041,14905,18160,16491,21570,19196,14675,
8612,3644,16755,14150,14344,17866,9795,20674,8573,21418,17922,22343,11491,12572,21056,20141,
14282,18858,17407,21646,19103,17521,18709,20118,19924,17256,18408,13987,6143,6659,20448,19230,
7990,19807,15912,15833,5067,960,20528,15125,20387,10210,20965,19984,12675,17358,18756,18353,
14750,4650,7425,4068,13150,22178,21288,19077,3318,20556,13559,22325,5539,18121,14620,14094,
20851,4154,16773,14987,17731,14607,6832,15724,21528,19198,8582,18539,19384,20224,13041,21200,
14264,18484,17871,11033,11512,18956,16165,22722,7372,8470,15438,6068,20079,15757,18285,18517,
22695,19718,15717,22130,2238,14164,9417,18319,2794,11557,19321,7474,5650,11596,8970,9014,
** ... 110 like lines cut
*Solid Section, elset=Set_7, material=Mat_7
*Elset, elset=Set_8
21698,18206,15212,15144,17434,19454,14868,16048,21464,17791,20711,19891,16989,9257,12769,18091,
3081,14169,9817,18644,19261,5372,21916,18211,17043,20005,15750,9797,17280,21300,18628,9447,
18257,18000,18420,21552,6476,20644,5153,17147,20672,6454,21186,19680,13716,19126,19804,7199,
20140,6419,19411,10709,20297,19959,1476,2589,20116,12568,21324,17001,17011,17022,15322,14182,
14274,1571,13804,8559,19706,10639,19752,19366,10865,17207,18991,13963,22169,15263,13684,17012,
18292,21319,21384,18642,3476,19083,18627,15848,14268,15506,1846,8532,17348,16303,17973,13357,
3788,8503,20378,4134,22093,20611,20402,20066,9918,20238,17901,19660,3706,14097,11526,19757,
14347,18595,21317,16810,21696,8541,18395,17450,5471,20993,20443,9009,122,17675,18492,17853,
4110,20382,18216,16059,20331,19744,17775,9698,18460,19740,9172,4649,13070,12438,15185,17781,
21064,18098,21208,16217,4264,8992,16487,19143,20619,21610,19262,5681,6363,20547,21184,14526,
13819,18059,2441,9029,16748,20292,20542,19461,5765,7734,12673,2038,17399,8524,9069,3218,
3688,16270,18130,11087,9260,13611,16827,17800,4863,22580,14463,22222,17648,9481,21053,19124,
20656,10695,11723,18839,20121,22370,20073,688,10768,20796,13498,14298,17403,13009,17517,22372,
17512,22481,21297,20758,13291,14322,21211,13171,19734,3098,16670,8934,7340,4449,13978,21492,
17655,14853,12300,21662,2569,2182,6614,20830,19339,2093,17209,14981,14807,19881,16481,19089,
8764,16864,18519,15573,20001,18866,12032,19179,18864,14838,21966,12094,15083,5033,16850,21462,
4544,17212,18026,21581,18322,6566,11188,6385,17991,12825,16927,10785,22657,20911,18630,18945,
12506,19787,15487,16069,9053,22735,12038,21493,20543,16683,17438,11367,20064,11110,13140,13908,
17981,2475,18373,11894,12055,12945,20702,6864,13886,20650,19833,14005,12179,18693,18678,15529,
7994,17848,14412,16291,18816,5566,21351,8423,21111,20018,18806,17831,17479,3233,18932,19394,
** ... 153 like lines cut
*Solid Section, elset=Set_8, material=Mat_8
*Elset, elset=Set_9
9100,15936,18172,9568,11398,18581,16060,19217,17455,18571,20692,16735,16700,14873,18541,7321,
12395,19116,8254,14357,18009,8776,555,8318,16641,593,12531,16273,21015,4158,17133,5700,
20957,15874,22212,14249,9163,10350,6952,12101,5522,17284,13128,21020,19573,16467,12238,14835,
2859,10636,1021,2978,18462,21074,15832,15486,8391,20275,19979,15396,7181,17345,5966,4390,
11407,15491,15672,17911,9242,20657,22473,19218,15371,17417,15350,13851,21062,11942,17977,14897,
20247,18132,12669,21511,5204,22517,777,15467,4817,838,20999,11560,16862,15858,15325,18383,
19204,14965,14461,11183,10038,11509,9171,20608,9878,21634,10967,4711,19434,10670,14338,15739,
833,17073,1988,14402,9279,12492,147,18826,370,22067,662,9746,21330,13260,15882,16141,
18268,835,2313,12494,14977,14330,6023,6814,21572,19267,21512,21439,12327,10796,22620,11622,
15856,12412,20797,9706,19406,10978,16705,14291,2995,1587,14154,15003,14008,2466,11763,14360,
14230,5353,1124,17367,8241,6408,10009,18566,2503,15622,6404,21173,10961,22550,6868,19107,
19973,11674,10223,21535,2858,7328,19900,17891,9395,13942,1370,9947,16227,5957,8156,20893,
21218,19388,20652,13052,16615,12277,20622,15525,9196,17264,17180,19675,19162,1563,20093,16940,
7721,12509,19703,17935,1098,8660,2933,22467,14529,16293,19207,2999,17830,11861,17374,11023,
10533,18951,9388,245,15455,15896,5198,19048,8442,20618,9997,12765,8476,20952,15464,1585,
20494,13762,6853,8678,18514,3447,6039,18706,2942,6730,17972,7800,18701,14285,22627,18796,
15618,22295,12522,21735,16383,10077,13708,930,4404,17673,15982,9414,17670,13119,8330,19005,
4566,10947,7695,14284,4414,8116,20979,19288,14121,21159,10151,11068,15815,1584,15576,14149,
10980,20267,19351,19135,16529,22737,20502,1943,19100,20190,11724,12202,12340,6256,14668,17850,
20546,14678,11036,19887,5270,21375,15593,21633,2228,3467,7249,17174,9897,20920,16175,12831,
** ... 225 like lines cut
*Solid Section, elset=Set_9, material=Mat_9
*Elset, elset=Set_10
7885,17565,20984,17526,7156,244,2997,8268,4643,1787,9306,7989,17091,19387,5482,4969,
13605,21854,16745,222,111,13311,13701,10048,22435,8100,9785,1474,4977,15266,8873,7912,
22017,9229,7998,14495,17759,21323,233,18997,12861,1325,14613,7873,5115,6779,8945,14966,
583,5261,658,3780,19967,7699,927,1355,17893,22447,17075,9686,5275,14467,2876,20296,
1530,2939,13602,21761,3795,13251,5385,12545,22462,13808,782,5369,16577,268,119,445,
1880,9905,5358,10246,973,19137,14143,4160,7177,8117,19785,71,3970,297,2291,2990,
8455,6263,12884,8840,11240,21923,567,1686,5332,13378,15584,10053,10183,1123,18034,8922,
11688,5795,15927,18850,13071,2593,9233,7254,9886,944,8337,6755,5637,2045,20481,1002,
8946,8597,14813,1826,10650,17607,22348,4548,17558,5767,14864,10821,2114,22272,12929,9268,
758,13926,9888,15288,1610,10324,885,10884,17637,2300,13576,5483,9929,9503,6835,7761,
5985,10787,11350,3700,6751,10608,2467,13510,22141,21932,818,4677,531,13924,21541,4439,
1689,4067,12381,7380,20423,6201,1911,6107,14430,3627,20880,7867,5678,17200,8935,11057,
6004,6297,4050,1856,18766,5034,16239,18163,4733,15793,8743,607,11655,22415,7084,16371,
11031,21700,8894,1052,21822,12710,4757,16721,8647,940,12252,995,21733,1452,16271,653,
12057,8315,3800,8114,118,10477,6395,21937,272,9147,4966,7993,5629,18191,7914,3193,
12692,19531,1635,17327,9538,14695,9487,2094,8557,16537,8871,10992,2097,5195,1887,5407,
21213,5028,5006,5097,11513,5126,2448,7204,5576,13516,7166,10748,476,11287,21740,3535,
2428,3361,14925,3896,1409,11275,217,12563,12430,6140,4513,20626,4976,11366,11233,1570,
7634,7275,11442,22768,10256,10366,674,7978,8701,8722,2913,22610,1145,1047,3601,7987,
7882,1839,11215,13612,4707,11817,17331,6582,4492,770,17551,15429,2383,13806,8499,6001,
** ... 590 like lines cut
*Solid Section, elset=Set_10, material=Mat_10
*Material, name=Mat_1
*Density
1.3651227051546725e-09 
*Elastic, type=ENGINEERING CONSTANTS
 2559.6065373606934,2559.6065373606934,7686.50611820028,0.381,0.104,0.104,930.0672403022338,1206.781460557444,
 1206.781460557444,
*Plastic
 81.72708505321869,0
 86.29485183925645,0.05494126422030927
 47.86609630968797,0.067891637807168
*Potential
1.,1.,1.,1.,1.,1.
*Material, name=Mat_2
*Density
1.1562884049755855e-09 
*Elastic, type=ENGINEERING CONSTANTS
 1975.5526136145152,1975.5526136145152,5932.59043127482,0.381,0.104,0.104,717.8434421842531,931.4166977101468,
 931.4166977101468,
*Plastic
 61.40814182132322,0
 64.28673333598299,0.04626954009196763
 34.48498843967522,0.060630593777956245
*Potential
1.,1.,1.,1.,1.,1.
*Material, name=Mat_3
*Density
9.957625455337372e-10 
*Elastic, type=ENGINEERING CONSTANTS
 1564.690340856932,1564.690340856932,4698.769792363159,0.381,0.104,0.104,568.5511448759422,737.7068574010159,
 737.7068574010159,
*Plastic
 47.47620544247133,0
 49.37265669822441,0.03955230046916268
 25.70060006000554,0.055257337039333526
*Potential
1.,1.,1.,1.,1.,1.
*Material, name=Mat_4
*Density
8.537206064342682e-10 
*Elastic, type=ENGINEERING CONSTANTS
 1230.7163392047978,1230.7163392047978,3695.84486247687,0.381,0.104,0.104,447.1972283597012,580.2476434088686,
 580.2476434088686,
*Plastic
 36.42558343866339,0
 37.65715087796052,0.033570662490639766
 19.006295766480516,0.0507362716573879
*Potential
1.,1.,1.,1.,1.,1.
*Material, name=Mat_5
*Density
7.220555571803367e-10 
*Elastic, type=ENGINEERING CONSTANTS
 947.7101530446271,947.7101530446271,2845.9764355694506,0.381,0.104,0.104,344.3631487039035,446.81830038440376,
 446.81830038440376,
*Plastic
 27.30070314464896,0
 28.068457821286707,0.02799387618679623
 13.69990353898068,0.04684163015869629
*Potential
1.,1.,1.,1.,1.,1.
*Material, name=Mat_6
*Density
5.906492606642861e-10 
*Elastic, type=ENGINEERING CONSTANTS
 692.754971497229,692.754971497229,2080.3452597514383,0.381,0.104,0.104,251.72177642992403,326.6142057809758,
 326.6142057809758,
*Plastic
 19.31924172635533,0
 19.75282427037967,0.022396866899546973
 9.262659007144034,0.04339606427960775
*Potential
1.,1.,1.,1.,1.,1.
*Material, name=Mat_7
*Density
4.697142593772647e-10 
*Elastic, type=ENGINEERING CONSTANTS
 484.58059144555375,484.58059144555375,1455.196971307969,0.381,0.104,0.104,176.07883352826425,228.46592449535115,
 228.46592449535115,
*Plastic
 12.777813546884795,0
 12.997812256685666,0.017218034081038894
 5.930310558426064,0.0400845686018806
*Potential
1.,1.,1.,1.,1.,1.
*Material, name=Mat_8
*Density
3.610641732101318e-10 
*Elastic, type=ENGINEERING CONSTANTS
 321.4674714858815,321.4674714858815,965.3677822398844,0.381,0.104,0.104,116.80950165102601,151.56274181166185,
 151.56274181166185,
*Plastic
 7.786908580608305,0
 7.884409136733153,0.012542298588586836
 3.555255507007495,0.03680252756288915
*Potential
1.,1.,1.,1.,1.,1.
*Material, name=Mat_9
*Density
2.5061606385384986e-10 
*Elastic, type=ENGINEERING CONSTANTS
 181.8692457176985,181.8692457176985,546.1538910441396,0.381,0.104,0.104,66.0846208163409,85.74616089392993,
 85.74616089392993,
*Plastic
 3.9161812593834093,0
 3.9464995115989647,0.0077666708468155455
 1.7509131252715575,0.03404640802226152
*Potential
1.,1.,1.,1.,1.,1.
*Material, name=Mat_10
*Density
1.3725391821405975e-10 
*Elastic, type=ENGINEERING CONSTANTS
 71.09580665470382,71.09580665470382,213.50092088499645,0.381,0.104,0.104,25.83361142708457,33.519644578944444,
 33.519644578944444,
*Plastic
 1.261055504460287,0
 1.2646225779534468,0.002841211082063407
 0.5463864220809357,0.03270374463660978
*Potential
1.,1.,1.,1.,1.,1.
